REMARK Flexibility Score: inf
REMARK Active torsions [ 7 ] -> [ 7 ]
ROOT
ATOM      1  C1  LIG L   1      15.822  54.654  12.322  1.00  0.00     0.038 A 
ATOM      2  C2  LIG L   1      16.958  54.451  11.414  1.00  0.00    -0.029 A 
ATOM      3  C3  LIG L   1      17.967  53.504  11.793  1.00  0.00     0.007 A 
ATOM      4  C4  LIG L   1      17.862  52.774  13.031  1.00  0.00     0.024 A 
ATOM      5  C5  LIG L   1      16.759  52.966  13.913  1.00  0.00     0.035 A 
ATOM      6  C6  LIG L   1      15.734  53.926  13.536  1.00  0.00     0.047 A 
ATOM      7  C7  LIG L   1      17.118  55.202  10.072  1.00  0.00     0.045 C 
ENDROOT
BRANCH    1    8
ATOM      8  N1  LIG L   1      14.809  55.564  12.009  1.00  0.00    -0.283 N 
ATOM      9  H1  LIG L   1      14.159  55.345  11.303  1.00  0.00     0.155 HD
BRANCH    8   10
ATOM     10  C8  LIG L   1      14.709  56.772  12.682  1.00  0.00     0.220 A 
ATOM     11  C9  LIG L   1      13.331  58.281  13.907  1.00  0.00     0.077 A 
ATOM     12 C10  LIG L   1      14.421  59.203  14.044  1.00  0.00     0.048 A 
ATOM     13  N2  LIG L   1      13.520  57.096  13.231  1.00  0.00    -0.214 NA
ATOM     14 C11  LIG L   1      15.656  58.839  13.461  1.00  0.00     0.116 A 
ATOM     15  N3  LIG L   1      15.780  57.640  12.794  1.00  0.00    -0.223 NA
BRANCH   11   16
ATOM     16 C12  LIG L   1      11.963  58.524  14.464  1.00  0.00     0.019 A 
ATOM     17 C13  LIG L   1      10.298  59.877  15.792  1.00  0.00     0.020 A 
ATOM     18 C14  LIG L   1      11.635  59.688  15.278  1.00  0.00     0.013 A 
ATOM     19 C15  LIG L   1       9.302  58.886  15.481  1.00  0.00     0.111 A 
ATOM     20  N4  LIG L   1       9.629  57.770  14.695  1.00  0.00    -0.263 NA
ATOM     21 C16  LIG L   1      10.907  57.563  14.186  1.00  0.00     0.120 A 
ENDBRANCH   11   16
ENDBRANCH    8   10
ENDBRANCH    1    8
BRANCH    5   22
ATOM     22  N5  LIG L   1      16.719  52.192  15.129  1.00  0.00    -0.281 N 
ATOM     23 C17  LIG L   1      17.150  52.566  16.392  1.00  0.00     0.248 C 
ATOM     24  H2  LIG L   1      16.340  51.286  15.052  1.00  0.00     0.155 HD
ATOM     25  O1  LIG L   1      17.834  53.551  16.624  1.00  0.00    -0.270 OA
BRANCH   23   26
ATOM     26 C18  LIG L   1      16.778  51.715  17.563  1.00  0.00     0.037 A 
ATOM     27 C19  LIG L   1      17.101  52.124  18.932  1.00  0.00     0.013 A 
ATOM     28 C20  LIG L   1      16.096  50.460  17.329  1.00  0.00     0.013 A 
ATOM     29 C21  LIG L   1      16.746  51.276  20.043  1.00  0.00     0.002 A 
ATOM     30 C22  LIG L   1      15.749  49.632  18.420  1.00  0.00     0.002 A 
ATOM     31 C23  LIG L   1      16.062  50.011  19.788  1.00  0.00    -0.064 A 
BRANCH   31   32
ATOM     32 C24  LIG L   1      15.664  49.034  20.911  1.00  0.00    -0.043 C 
BRANCH   32   33
ATOM     33  N6  LIG L   1      16.226  47.652  20.845  1.00  0.00     0.380 N 
ATOM     34 C25  LIG L   1      17.725  47.679  21.022  1.00  0.00    -0.097 C 
ATOM     35 C26  LIG L   1      15.590  46.724  21.884  1.00  0.00    -0.097 C 
ATOM     36  H3  LIG L   1      16.004  47.281  19.921  1.00  0.00    -0.082 HD
ATOM     37 C27  LIG L   1      18.332  46.251  20.937  1.00  0.00    -0.098 C 
ATOM     38 C28  LIG L   1      16.174  45.276  21.786  1.00  0.00    -0.098 C 
ATOM     39  N7  LIG L   1      17.692  45.328  21.964  1.00  0.00     0.375 N 
ATOM     40 C29  LIG L   1      18.237  43.963  21.931  1.00  0.00    -0.096 C 
ATOM     41  H4  LIG L   1      17.918  45.727  22.875  1.00  0.00    -0.082 HD
ENDBRANCH   32   33
ENDBRANCH   31   32
ENDBRANCH   23   26
ENDBRANCH    5   22
TORSDOF 7
