REMARK SMILES Cc1nc(=N)c2c(C)c(C(=O)N(C(=O)Nc3ccccc3)c3ccc(C(=O)NCCc4c[nH]c5ccccc45)nc3)sc2[nH]1
REMARK SMILES IDX 22 1 23 2 41 3 24 4 40 5 25 6 12 7 10 8 11 9 9 10 42 11 7 12
REMARK SMILES IDX 43 13 6 14 8 15 44 16 4 17 2 18 3 20 5 21 1 22 13 24 14 25
REMARK SMILES IDX 15 26 16 28 17 29 21 30 18 31 20 32 19 33 26 34 27 35 28 36
REMARK SMILES IDX 29 38 30 39 31 40 32 41 39 42 33 43 38 44 34 45 37 47 35 48
REMARK SMILES IDX 36 49
REMARK H PARENT 44 19 5 23 15 27 28 37 33 46
REMARK Flexibility Score: inf
ROOT
ATOM      1  C   UNL     1      -1.671  -1.151  -0.284  1.00  0.00     0.072 A 
ATOM      2  C   UNL     1      -1.127  -1.773   0.811  1.00  0.00     0.031 A 
ATOM      3  C   UNL     1      -0.909  -0.217  -0.957  1.00  0.00     0.138 A 
ATOM      4  C   UNL     1       0.175  -1.440   1.202  1.00  0.00     0.036 A 
ATOM      5  N   UNL     1       0.357   0.083  -0.546  1.00  0.00    -0.249 NA
ATOM      6  C   UNL     1       0.923  -0.506   0.520  1.00  0.00     0.128 A 
ENDROOT
BRANCH   1   7
ATOM      7  N   UNL     1      -2.981  -1.485  -0.798  1.00  0.00    -0.226 N 
BRANCH   7   8
ATOM      8  C   UNL     1      -3.982  -0.554  -0.929  1.00  0.00     0.277 C 
ATOM      9  O   UNL     1      -5.033  -0.975  -1.625  1.00  0.00    -0.267 OA
BRANCH   8  10
ATOM     10  C   UNL     1      -4.110   0.786  -0.468  1.00  0.00     0.099 A 
ATOM     11  S   UNL     1      -5.362   1.895  -1.268  1.00  0.00    -0.112 S 
ATOM     12  C   UNL     1      -3.641   1.615   0.491  1.00  0.00    -0.014 A 
ATOM     13  C   UNL     1      -5.091   3.278  -0.253  1.00  0.00     0.106 A 
ATOM     14  C   UNL     1      -4.124   2.878   0.608  1.00  0.00     0.057 A 
ATOM     15  C   UNL     1      -2.689   1.041   1.556  1.00  0.00     0.047 C 
ATOM     16  N   UNL     1      -5.673   4.515  -0.271  1.00  0.00    -0.335 N 
ATOM     17  C   UNL     1      -3.744   3.889   1.526  1.00  0.00     0.157 A 
ATOM     18  C   UNL     1      -5.287   5.439   0.615  1.00  0.00     0.106 A 
ATOM     19  H   UNL     1      -6.393   4.670  -0.981  1.00  0.00     0.169 HD
ATOM     20  N   UNL     1      -4.345   5.086   1.468  1.00  0.00    -0.216 NA
ATOM     21  N   UNL     1      -2.817   3.732   2.405  1.00  0.00    -0.282 NA
ATOM     22  C   UNL     1      -5.923   6.795   0.600  1.00  0.00     0.087 C 
ATOM     23  H   UNL     1      -2.561   4.487   3.065  1.00  0.00     0.189 HD
ENDBRANCH   8  10
ENDBRANCH   7   8
BRANCH   7  24
ATOM     24  C   UNL     1      -3.120  -2.897  -1.143  1.00  0.00     0.333 C 
ATOM     25  O   UNL     1      -2.071  -3.603  -0.965  1.00  0.00    -0.247 OA
ATOM     26  N   UNL     1      -4.249  -3.510  -1.625  1.00  0.00    -0.307 N 
ATOM     27  H   UNL     1      -5.132  -2.981  -1.780  1.00  0.00     0.171 HD
BRANCH  26  28
ATOM     28  C   UNL     1      -4.329  -4.904  -1.939  1.00  0.00     0.042 A 
ATOM     29  C   UNL     1      -5.298  -5.315  -2.850  1.00  0.00     0.026 A 
ATOM     30  C   UNL     1      -3.525  -5.825  -1.370  1.00  0.00     0.026 A 
ATOM     31  C   UNL     1      -5.441  -6.635  -3.172  1.00  0.00     0.002 A 
ATOM     32  C   UNL     1      -3.686  -7.174  -1.713  1.00  0.00     0.002 A 
ATOM     33  C   UNL     1      -4.635  -7.595  -2.608  1.00  0.00     0.000 A 
ENDBRANCH  26  28
ENDBRANCH   7  24
ENDBRANCH   1   7
BRANCH   6  34
ATOM     34  C   UNL     1       2.278  -0.184   0.957  1.00  0.00     0.269 C 
ATOM     35  O   UNL     1       2.727  -0.740   1.977  1.00  0.00    -0.268 OA
ATOM     36  N   UNL     1       3.106   0.735   0.268  1.00  0.00    -0.350 N 
ATOM     37  H   UNL     1       2.683   1.187  -0.596  1.00  0.00     0.163 HD
BRANCH  36  38
ATOM     38  C   UNL     1       4.448   1.037   0.718  1.00  0.00     0.121 C 
BRANCH  38  39
ATOM     39  C   UNL     1       5.328  -0.181   0.753  1.00  0.00     0.059 C 
BRANCH  39  40
ATOM     40  C   UNL     1       6.677   0.234   1.220  1.00  0.00    -0.021 A 
ATOM     41  C   UNL     1       7.250   0.064   2.463  1.00  0.00     0.087 A 
ATOM     42  C   UNL     1       7.623   0.887   0.454  1.00  0.00     0.003 A 
ATOM     43  N   UNL     1       8.491   0.597   2.440  1.00  0.00    -0.361 N 
ATOM     44  C   UNL     1       7.664   1.336  -0.859  1.00  0.00     0.010 A 
ATOM     45  C   UNL     1       8.746   1.107   1.223  1.00  0.00     0.046 A 
ATOM     46  H   UNL     1       9.187   0.629   3.232  1.00  0.00     0.166 HD
ATOM     47  C   UNL     1       8.781   1.971  -1.355  1.00  0.00     0.001 A 
ATOM     48  C   UNL     1       9.874   1.749   0.716  1.00  0.00     0.026 A 
ATOM     49  C   UNL     1       9.900   2.189  -0.583  1.00  0.00     0.002 A 
ENDBRANCH  39  40
ENDBRANCH  38  39
ENDBRANCH  36  38
ENDBRANCH   6  34
TORSDOF 9
