MODEL 1
REMARK VINA RESULT:   -11.513      0.000      0.000
REMARK INTER + INTRA:         -19.142
REMARK INTER:                 -17.571
REMARK INTRA:                  -1.571
REMARK UNBOUND:                -1.571
REMARK SMILES Cc1nc(=N)c2c(C)c(C(=O)N(C(=O)Nc3ccccc3)c3ccc(C(=O)NCCc4c[nH]c5ccccc45)nc3)sc2[nH]1
REMARK SMILES IDX 22 1 23 2 41 3 24 4 40 5 25 6 12 7 10 8 11 9 9 10 42 11 7 12
REMARK SMILES IDX 43 13 6 14 8 15 44 16 4 17 2 18 3 20 5 21 1 22 13 24 14 25
REMARK SMILES IDX 15 26 16 28 17 29 21 30 18 31 20 32 19 33 26 34 27 35 28 36
REMARK SMILES IDX 29 38 30 39 31 40 32 41 39 42 33 43 38 44 34 45 37 47 35 48
REMARK SMILES IDX 36 49
REMARK H PARENT 44 19 5 23 15 27 28 37 33 46
REMARK Flexibility Score: inf
ROOT
ATOM      1  C   UNL     1      44.127  28.935   1.424  1.00  0.00     0.072 A 
ATOM      2  C   UNL     1      44.716  27.698   1.357  1.00  0.00     0.031 A 
ATOM      3  C   UNL     1      44.703  29.896   2.231  1.00  0.00     0.138 A 
ATOM      4  C   UNL     1      45.874  27.458   2.105  1.00  0.00     0.036 A 
ATOM      5  N   UNL     1      45.833  29.625   2.947  1.00  0.00    -0.249 NA
ATOM      6  C   UNL     1      46.437  28.427   2.906  1.00  0.00     0.128 A 
ENDROOT
BRANCH   1   7
ATOM      7  N   UNL     1      42.971  29.291   0.631  1.00  0.00    -0.226 N 
BRANCH   7   8
ATOM      8  C   UNL     1      41.780  29.679   1.196  1.00  0.00     0.277 C 
ATOM      9  O   UNL     1      40.988  28.672   1.549  1.00  0.00    -0.267 OA
BRANCH   8  10
ATOM     10  C   UNL     1      41.223  30.959   1.470  1.00  0.00     0.099 A 
ATOM     11  S   UNL     1      41.326  31.632   3.195  1.00  0.00    -0.112 S 
ATOM     12  C   UNL     1      40.637  32.005   0.845  1.00  0.00    -0.014 A 
ATOM     13  C   UNL     1      40.586  33.167   2.862  1.00  0.00     0.106 A 
ATOM     14  C   UNL     1      40.306  33.125   1.537  1.00  0.00     0.057 A 
ATOM     15  C   UNL     1      40.525  31.973  -0.690  1.00  0.00     0.047 C 
ATOM     16  N   UNL     1      40.309  34.215   3.696  1.00  0.00    -0.335 N 
ATOM     17  C   UNL     1      39.672  34.301   1.064  1.00  0.00     0.157 A 
ATOM     18  C   UNL     1      39.712  35.307   3.209  1.00  0.00     0.106 A 
ATOM     19  H   UNL     1      40.582  34.102   4.676  1.00  0.00     0.169 HD
ATOM     20  N   UNL     1      39.422  35.300   1.922  1.00  0.00    -0.216 NA
ATOM     21  N   UNL     1      39.286  34.454  -0.154  1.00  0.00    -0.282 NA
ATOM     22  C   UNL     1      39.409  36.457   4.119  1.00  0.00     0.087 C 
ATOM     23  H   UNL     1      38.827  35.325  -0.473  1.00  0.00     0.189 HD
ENDBRANCH   8  10
ENDBRANCH   7   8
BRANCH   7  24
ATOM     24  C   UNL     1      43.203  29.181  -0.806  1.00  0.00     0.333 C 
ATOM     25  O   UNL     1      42.701  28.144  -1.357  1.00  0.00    -0.247 OA
ATOM     26  N   UNL     1      43.891  30.072  -1.590  1.00  0.00    -0.307 N 
ATOM     27  H   UNL     1      44.312  30.936  -1.191  1.00  0.00     0.171 HD
BRANCH  26  28
ATOM     28  C   UNL     1      44.080  29.915  -3.000  1.00  0.00     0.042 A 
ATOM     29  C   UNL     1      45.219  29.243  -3.437  1.00  0.00     0.026 A 
ATOM     30  C   UNL     1      43.218  30.412  -3.909  1.00  0.00     0.026 A 
ATOM     31  C   UNL     1      45.469  29.083  -4.770  1.00  0.00     0.002 A 
ATOM     32  C   UNL     1      43.490  30.237  -5.273  1.00  0.00     0.002 A 
ATOM     33  C   UNL     1      44.606  29.579  -5.719  1.00  0.00     0.000 A 
ENDBRANCH  26  28
ENDBRANCH   7  24
ENDBRANCH   1   7
BRANCH   6  34
ATOM     34  C   UNL     1      47.646  28.140   3.672  1.00  0.00     0.269 C 
ATOM     35  O   UNL     1      47.534  27.811   4.868  1.00  0.00    -0.268 OA
ATOM     36  N   UNL     1      48.944  28.218   3.111  1.00  0.00    -0.350 N 
ATOM     37  H   UNL     1      48.994  28.503   2.088  1.00  0.00     0.163 HD
BRANCH  36  38
ATOM     38  C   UNL     1      50.129  27.926   3.889  1.00  0.00     0.121 C 
BRANCH  38  39
ATOM     39  C   UNL     1      50.026  26.617   4.621  1.00  0.00     0.059 C 
BRANCH  39  40
ATOM     40  C   UNL     1      50.238  25.520   3.641  1.00  0.00    -0.021 A 
ATOM     41  C   UNL     1      51.384  25.192   2.946  1.00  0.00     0.087 A 
ATOM     42  C   UNL     1      49.282  24.604   3.245  1.00  0.00     0.003 A 
ATOM     43  N   UNL     1      51.122  24.123   2.164  1.00  0.00    -0.361 N 
ATOM     44  C   UNL     1      47.949  24.394   3.571  1.00  0.00     0.010 A 
ATOM     45  C   UNL     1      49.843  23.741   2.327  1.00  0.00     0.046 A 
ATOM     46  H   UNL     1      51.788  23.630   1.512  1.00  0.00     0.166 HD
ATOM     47  C   UNL     1      47.234  23.367   2.995  1.00  0.00     0.001 A 
ATOM     48  C   UNL     1      49.115  22.704   1.748  1.00  0.00     0.026 A 
ATOM     49  C   UNL     1      47.798  22.508   2.079  1.00  0.00     0.002 A 
ENDBRANCH  39  40
ENDBRANCH  38  39
ENDBRANCH  36  38
ENDBRANCH   6  34
TORSDOF 9
ENDMDL
MODEL 2
REMARK VINA RESULT:   -10.642      2.410      6.538
REMARK INTER + INTRA:         -17.813
REMARK INTER:                 -16.231
REMARK INTRA:                  -1.582
REMARK UNBOUND:                -1.571
REMARK SMILES Cc1nc(=N)c2c(C)c(C(=O)N(C(=O)Nc3ccccc3)c3ccc(C(=O)NCCc4c[nH]c5ccccc45)nc3)sc2[nH]1
REMARK SMILES IDX 22 1 23 2 41 3 24 4 40 5 25 6 12 7 10 8 11 9 9 10 42 11 7 12
REMARK SMILES IDX 43 13 6 14 8 15 44 16 4 17 2 18 3 20 5 21 1 22 13 24 14 25
REMARK SMILES IDX 15 26 16 28 17 29 21 30 18 31 20 32 19 33 26 34 27 35 28 36
REMARK SMILES IDX 29 38 30 39 31 40 32 41 39 42 33 43 38 44 34 45 37 47 35 48
REMARK SMILES IDX 36 49
REMARK H PARENT 44 19 5 23 15 27 28 37 33 46
REMARK Flexibility Score: inf
ROOT
ATOM      1  C   UNL     1      42.498  29.748   0.352  1.00  0.00     0.072 A 
ATOM      2  C   UNL     1      42.219  28.533   0.924  1.00  0.00     0.031 A 
ATOM      3  C   UNL     1      43.570  30.472   0.833  1.00  0.00     0.138 A 
ATOM      4  C   UNL     1      43.030  28.074   1.969  1.00  0.00     0.036 A 
ATOM      5  N   UNL     1      44.339  29.993   1.854  1.00  0.00    -0.249 NA
ATOM      6  C   UNL     1      44.097  28.807   2.437  1.00  0.00     0.128 A 
ENDROOT
BRANCH   1   7
ATOM      7  N   UNL     1      41.755  30.266  -0.776  1.00  0.00    -0.226 N 
BRANCH   7   8
ATOM      8  C   UNL     1      41.951  29.814  -2.058  1.00  0.00     0.277 C 
ATOM      9  O   UNL     1      40.831  29.637  -2.752  1.00  0.00    -0.267 OA
BRANCH   8  10
ATOM     10  C   UNL     1      43.126  29.489  -2.790  1.00  0.00     0.099 A 
ATOM     11  S   UNL     1      43.700  30.641  -4.125  1.00  0.00    -0.112 S 
ATOM     12  C   UNL     1      44.122  28.576  -2.825  1.00  0.00    -0.014 A 
ATOM     13  C   UNL     1      45.141  29.768  -4.546  1.00  0.00     0.106 A 
ATOM     14  C   UNL     1      45.143  28.701  -3.710  1.00  0.00     0.057 A 
ATOM     15  C   UNL     1      44.169  27.500  -1.725  1.00  0.00     0.047 C 
ATOM     16  N   UNL     1      46.089  30.032  -5.495  1.00  0.00    -0.335 N 
ATOM     17  C   UNL     1      46.253  27.841  -3.909  1.00  0.00     0.157 A 
ATOM     18  C   UNL     1      47.122  29.196  -5.647  1.00  0.00     0.106 A 
ATOM     19  H   UNL     1      45.954  30.880  -6.051  1.00  0.00     0.169 HD
ATOM     20  N   UNL     1      47.156  28.145  -4.852  1.00  0.00    -0.216 NA
ATOM     21  N   UNL     1      46.428  26.751  -3.247  1.00  0.00    -0.282 NA
ATOM     22  C   UNL     1      48.164  29.483  -6.684  1.00  0.00     0.087 C 
ATOM     23  H   UNL     1      47.249  26.143  -3.412  1.00  0.00     0.189 HD
ENDBRANCH   8  10
ENDBRANCH   7   8
BRANCH   7  24
ATOM     24  C   UNL     1      40.803  31.309  -0.407  1.00  0.00     0.333 C 
ATOM     25  O   UNL     1      40.204  31.126   0.706  1.00  0.00    -0.247 OA
ATOM     26  N   UNL     1      40.509  32.437  -1.132  1.00  0.00    -0.307 N 
ATOM     27  H   UNL     1      40.976  32.637  -2.041  1.00  0.00     0.171 HD
BRANCH  26  28
ATOM     28  C   UNL     1      39.570  33.433  -0.715  1.00  0.00     0.042 A 
ATOM     29  C   UNL     1      40.067  34.646  -0.247  1.00  0.00     0.026 A 
ATOM     30  C   UNL     1      38.237  33.229  -0.735  1.00  0.00     0.026 A 
ATOM     31  C   UNL     1      39.222  35.627   0.189  1.00  0.00     0.002 A 
ATOM     32  C   UNL     1      37.386  34.247  -0.285  1.00  0.00     0.002 A 
ATOM     33  C   UNL     1      37.859  35.447   0.179  1.00  0.00     0.000 A 
ENDBRANCH  26  28
ENDBRANCH   7  24
ENDBRANCH   1   7
BRANCH   6  34
ATOM     34  C   UNL     1      44.921  28.297   3.529  1.00  0.00     0.269 C 
ATOM     35  O   UNL     1      44.359  27.801   4.523  1.00  0.00    -0.268 OA
ATOM     36  N   UNL     1      46.336  28.339   3.503  1.00  0.00    -0.350 N 
ATOM     37  H   UNL     1      46.774  28.771   2.636  1.00  0.00     0.163 HD
BRANCH  36  38
ATOM     38  C   UNL     1      47.134  27.824   4.596  1.00  0.00     0.121 C 
BRANCH  38  39
ATOM     39  C   UNL     1      47.275  26.329   4.546  1.00  0.00     0.059 C 
BRANCH  39  40
ATOM     40  C   UNL     1      48.566  26.006   3.882  1.00  0.00    -0.021 A 
ATOM     41  C   UNL     1      49.658  26.823   3.676  1.00  0.00     0.087 A 
ATOM     42  C   UNL     1      48.901  24.782   3.336  1.00  0.00     0.003 A 
ATOM     43  N   UNL     1      50.609  26.113   3.031  1.00  0.00    -0.361 N 
ATOM     44  C   UNL     1      48.249  23.562   3.222  1.00  0.00     0.010 A 
ATOM     45  C   UNL     1      50.173  24.861   2.811  1.00  0.00     0.046 A 
ATOM     46  H   UNL     1      51.562  26.449   2.728  1.00  0.00     0.166 HD
ATOM     47  C   UNL     1      48.858  22.489   2.609  1.00  0.00     0.001 A 
ATOM     48  C   UNL     1      50.785  23.772   2.192  1.00  0.00     0.026 A 
ATOM     49  C   UNL     1      50.129  22.572   2.085  1.00  0.00     0.002 A 
ENDBRANCH  39  40
ENDBRANCH  38  39
ENDBRANCH  36  38
ENDBRANCH   6  34
TORSDOF 9
ENDMDL
MODEL 3
REMARK VINA RESULT:   -10.586      2.060      6.697
REMARK INTER + INTRA:         -17.727
REMARK INTER:                 -17.079
REMARK INTRA:                  -0.648
REMARK UNBOUND:                -1.571
REMARK SMILES Cc1nc(=N)c2c(C)c(C(=O)N(C(=O)Nc3ccccc3)c3ccc(C(=O)NCCc4c[nH]c5ccccc45)nc3)sc2[nH]1
REMARK SMILES IDX 22 1 23 2 41 3 24 4 40 5 25 6 12 7 10 8 11 9 9 10 42 11 7 12
REMARK SMILES IDX 43 13 6 14 8 15 44 16 4 17 2 18 3 20 5 21 1 22 13 24 14 25
REMARK SMILES IDX 15 26 16 28 17 29 21 30 18 31 20 32 19 33 26 34 27 35 28 36
REMARK SMILES IDX 29 38 30 39 31 40 32 41 39 42 33 43 38 44 34 45 37 47 35 48
REMARK SMILES IDX 36 49
REMARK H PARENT 44 19 5 23 15 27 28 37 33 46
REMARK Flexibility Score: inf
ROOT
ATOM      1  C   UNL     1      43.232  29.535   2.168  1.00  0.00     0.072 A 
ATOM      2  C   UNL     1      42.827  28.469   2.930  1.00  0.00     0.031 A 
ATOM      3  C   UNL     1      44.585  29.761   2.018  1.00  0.00     0.138 A 
ATOM      4  C   UNL     1      43.797  27.652   3.523  1.00  0.00     0.036 A 
ATOM      5  N   UNL     1      45.503  28.944   2.612  1.00  0.00    -0.249 NA
ATOM      6  C   UNL     1      45.144  27.891   3.364  1.00  0.00     0.128 A 
ENDROOT
BRANCH   1   7
ATOM      7  N   UNL     1      42.299  30.387   1.463  1.00  0.00    -0.226 N 
BRANCH   7   8
ATOM      8  C   UNL     1      41.840  30.095   0.202  1.00  0.00     0.277 C 
ATOM      9  O   UNL     1      40.548  30.347   0.019  1.00  0.00    -0.267 OA
BRANCH   8  10
ATOM     10  C   UNL     1      42.481  29.563  -0.951  1.00  0.00     0.099 A 
ATOM     11  S   UNL     1      42.773  30.672  -2.408  1.00  0.00    -0.112 S 
ATOM     12  C   UNL     1      43.078  28.433  -1.393  1.00  0.00    -0.014 A 
ATOM     13  C   UNL     1      43.616  29.510  -3.386  1.00  0.00     0.106 A 
ATOM     14  C   UNL     1      43.650  28.391  -2.623  1.00  0.00     0.057 A 
ATOM     15  C   UNL     1      43.255  27.264  -0.408  1.00  0.00     0.047 C 
ATOM     16  N   UNL     1      44.138  29.627  -4.644  1.00  0.00    -0.335 N 
ATOM     17  C   UNL     1      44.295  27.302  -3.261  1.00  0.00     0.157 A 
ATOM     18  C   UNL     1      44.741  28.576  -5.209  1.00  0.00     0.106 A 
ATOM     19  H   UNL     1      44.036  30.539  -5.097  1.00  0.00     0.169 HD
ATOM     20  N   UNL     1      44.792  27.467  -4.496  1.00  0.00    -0.216 NA
ATOM     21  N   UNL     1      44.405  26.136  -2.728  1.00  0.00    -0.282 NA
ATOM     22  C   UNL     1      45.316  28.700  -6.586  1.00  0.00     0.087 C 
ATOM     23  H   UNL     1      44.883  25.358  -3.216  1.00  0.00     0.189 HD
ENDBRANCH   8  10
ENDBRANCH   7   8
BRANCH   7  24
ATOM     24  C   UNL     1      41.919  31.575   2.223  1.00  0.00     0.333 C 
ATOM     25  O   UNL     1      42.879  32.369   2.501  1.00  0.00    -0.247 OA
ATOM     26  N   UNL     1      40.655  31.900   2.647  1.00  0.00    -0.307 N 
ATOM     27  H   UNL     1      39.837  31.290   2.439  1.00  0.00     0.171 HD
BRANCH  26  28
ATOM     28  C   UNL     1      40.340  33.086   3.384  1.00  0.00     0.042 A 
ATOM     29  C   UNL     1      40.091  32.962   4.748  1.00  0.00     0.026 A 
ATOM     30  C   UNL     1      40.251  34.300   2.804  1.00  0.00     0.026 A 
ATOM     31  C   UNL     1      39.761  34.053   5.501  1.00  0.00     0.002 A 
ATOM     32  C   UNL     1      39.911  35.407   3.593  1.00  0.00     0.002 A 
ATOM     33  C   UNL     1      39.664  35.302   4.937  1.00  0.00     0.000 A 
ENDBRANCH  26  28
ENDBRANCH   7  24
ENDBRANCH   1   7
BRANCH   6  34
ATOM     34  C   UNL     1      46.127  27.018   3.997  1.00  0.00     0.269 C 
ATOM     35  O   UNL     1      46.502  27.279   5.156  1.00  0.00    -0.268 OA
ATOM     36  N   UNL     1      46.673  25.883   3.350  1.00  0.00    -0.350 N 
ATOM     37  H   UNL     1      46.326  25.698   2.362  1.00  0.00     0.163 HD
BRANCH  36  38
ATOM     38  C   UNL     1      47.645  25.030   3.998  1.00  0.00     0.121 C 
BRANCH  38  39
ATOM     39  C   UNL     1      48.387  24.161   3.022  1.00  0.00     0.059 C 
BRANCH  39  40
ATOM     40  C   UNL     1      49.798  24.626   2.966  1.00  0.00    -0.021 A 
ATOM     41  C   UNL     1      50.933  23.906   2.656  1.00  0.00     0.087 A 
ATOM     42  C   UNL     1      50.227  25.913   3.225  1.00  0.00     0.003 A 
ATOM     43  N   UNL     1      51.999  24.731   2.729  1.00  0.00    -0.361 N 
ATOM     44  C   UNL     1      49.590  27.093   3.584  1.00  0.00     0.010 A 
ATOM     45  C   UNL     1      51.597  25.966   3.075  1.00  0.00     0.046 A 
ATOM     46  H   UNL     1      53.010  24.487   2.550  1.00  0.00     0.166 HD
ATOM     47  C   UNL     1      50.305  28.253   3.778  1.00  0.00     0.001 A 
ATOM     48  C   UNL     1      52.316  27.143   3.272  1.00  0.00     0.026 A 
ATOM     49  C   UNL     1      51.673  28.301   3.627  1.00  0.00     0.002 A 
ENDBRANCH  39  40
ENDBRANCH  38  39
ENDBRANCH  36  38
ENDBRANCH   6  34
TORSDOF 9
ENDMDL
MODEL 4
REMARK VINA RESULT:   -10.562      1.649      2.444
REMARK INTER + INTRA:         -17.690
REMARK INTER:                 -16.386
REMARK INTRA:                  -1.303
REMARK UNBOUND:                -1.571
REMARK SMILES Cc1nc(=N)c2c(C)c(C(=O)N(C(=O)Nc3ccccc3)c3ccc(C(=O)NCCc4c[nH]c5ccccc45)nc3)sc2[nH]1
REMARK SMILES IDX 22 1 23 2 41 3 24 4 40 5 25 6 12 7 10 8 11 9 9 10 42 11 7 12
REMARK SMILES IDX 43 13 6 14 8 15 44 16 4 17 2 18 3 20 5 21 1 22 13 24 14 25
REMARK SMILES IDX 15 26 16 28 17 29 21 30 18 31 20 32 19 33 26 34 27 35 28 36
REMARK SMILES IDX 29 38 30 39 31 40 32 41 39 42 33 43 38 44 34 45 37 47 35 48
REMARK SMILES IDX 36 49
REMARK H PARENT 44 19 5 23 15 27 28 37 33 46
REMARK Flexibility Score: inf
ROOT
ATOM      1  C   UNL     1      42.671  30.394   0.617  1.00  0.00     0.072 A 
ATOM      2  C   UNL     1      43.704  31.006   1.280  1.00  0.00     0.031 A 
ATOM      3  C   UNL     1      42.343  29.098   0.961  1.00  0.00     0.138 A 
ATOM      4  C   UNL     1      44.384  30.296   2.277  1.00  0.00     0.036 A 
ATOM      5  N   UNL     1      43.029  28.437   1.938  1.00  0.00    -0.249 NA
ATOM      6  C   UNL     1      44.045  29.003   2.609  1.00  0.00     0.128 A 
ENDROOT
BRANCH   1   7
ATOM      7  N   UNL     1      41.871  31.077  -0.376  1.00  0.00    -0.226 N 
BRANCH   7   8
ATOM      8  C   UNL     1      40.746  31.794  -0.052  1.00  0.00     0.277 C 
ATOM      9  O   UNL     1      39.662  31.454  -0.743  1.00  0.00    -0.267 OA
BRANCH   8  10
ATOM     10  C   UNL     1      40.514  32.844   0.880  1.00  0.00     0.099 A 
ATOM     11  S   UNL     1      40.565  32.461   2.693  1.00  0.00    -0.112 S 
ATOM     12  C   UNL     1      40.311  34.179   0.927  1.00  0.00    -0.014 A 
ATOM     13  C   UNL     1      40.305  34.084   3.254  1.00  0.00     0.106 A 
ATOM     14  C   UNL     1      40.199  34.818   2.119  1.00  0.00     0.057 A 
ATOM     15  C   UNL     1      40.395  34.981  -0.384  1.00  0.00     0.047 C 
ATOM     16  N   UNL     1      40.208  34.575   4.526  1.00  0.00    -0.335 N 
ATOM     17  C   UNL     1      39.964  36.194   2.367  1.00  0.00     0.157 A 
ATOM     18  C   UNL     1      39.989  35.880   4.715  1.00  0.00     0.106 A 
ATOM     19  H   UNL     1      40.311  33.897   5.286  1.00  0.00     0.169 HD
ATOM     20  N   UNL     1      39.877  36.626   3.633  1.00  0.00    -0.216 NA
ATOM     21  N   UNL     1      39.795  37.061   1.431  1.00  0.00    -0.282 NA
ATOM     22  C   UNL     1      39.883  36.423   6.108  1.00  0.00     0.087 C 
ATOM     23  H   UNL     1      39.627  38.060   1.640  1.00  0.00     0.189 HD
ENDBRANCH   8  10
ENDBRANCH   7   8
BRANCH   7  24
ATOM     24  C   UNL     1      42.378  30.910  -1.735  1.00  0.00     0.333 C 
ATOM     25  O   UNL     1      41.785  30.015  -2.428  1.00  0.00    -0.247 OA
ATOM     26  N   UNL     1      43.404  31.614  -2.314  1.00  0.00    -0.307 N 
ATOM     27  H   UNL     1      43.913  32.359  -1.795  1.00  0.00     0.171 HD
BRANCH  26  28
ATOM     28  C   UNL     1      43.853  31.412  -3.658  1.00  0.00     0.042 A 
ATOM     29  C   UNL     1      43.214  32.116  -4.674  1.00  0.00     0.026 A 
ATOM     30  C   UNL     1      44.846  30.555  -3.971  1.00  0.00     0.026 A 
ATOM     31  C   UNL     1      43.580  31.947  -5.980  1.00  0.00     0.002 A 
ATOM     32  C   UNL     1      45.208  30.396  -5.315  1.00  0.00     0.002 A 
ATOM     33  C   UNL     1      44.588  31.081  -6.328  1.00  0.00     0.000 A 
ENDBRANCH  26  28
ENDBRANCH   7  24
ENDBRANCH   1   7
BRANCH   6  34
ATOM     34  C   UNL     1      44.776  28.294   3.654  1.00  0.00     0.269 C 
ATOM     35  O   UNL     1      44.132  27.695   4.536  1.00  0.00    -0.268 OA
ATOM     36  N   UNL     1      46.191  28.256   3.708  1.00  0.00    -0.350 N 
ATOM     37  H   UNL     1      46.701  28.781   2.937  1.00  0.00     0.163 HD
BRANCH  36  38
ATOM     38  C   UNL     1      46.895  27.544   4.752  1.00  0.00     0.121 C 
BRANCH  38  39
ATOM     39  C   UNL     1      47.029  26.077   4.455  1.00  0.00     0.059 C 
BRANCH  39  40
ATOM     40  C   UNL     1      48.364  25.848   3.841  1.00  0.00    -0.021 A 
ATOM     41  C   UNL     1      49.416  26.730   3.709  1.00  0.00     0.087 A 
ATOM     42  C   UNL     1      48.791  24.663   3.275  1.00  0.00     0.003 A 
ATOM     43  N   UNL     1      50.433  26.095   3.087  1.00  0.00    -0.361 N 
ATOM     44  C   UNL     1      48.216  23.412   3.095  1.00  0.00     0.010 A 
ATOM     45  C   UNL     1      50.079  24.828   2.810  1.00  0.00     0.046 A 
ATOM     46  H   UNL     1      51.378  26.493   2.838  1.00  0.00     0.166 HD
ATOM     47  C   UNL     1      48.911  22.396   2.479  1.00  0.00     0.001 A 
ATOM     48  C   UNL     1      50.778  23.796   2.188  1.00  0.00     0.026 A 
ATOM     49  C   UNL     1      50.196  22.566   2.016  1.00  0.00     0.002 A 
ENDBRANCH  39  40
ENDBRANCH  38  39
ENDBRANCH  36  38
ENDBRANCH   6  34
TORSDOF 9
ENDMDL
MODEL 5
REMARK VINA RESULT:   -10.404      1.860      2.958
REMARK INTER + INTRA:         -17.449
REMARK INTER:                 -15.806
REMARK INTRA:                  -1.642
REMARK UNBOUND:                -1.571
REMARK SMILES Cc1nc(=N)c2c(C)c(C(=O)N(C(=O)Nc3ccccc3)c3ccc(C(=O)NCCc4c[nH]c5ccccc45)nc3)sc2[nH]1
REMARK SMILES IDX 22 1 23 2 41 3 24 4 40 5 25 6 12 7 10 8 11 9 9 10 42 11 7 12
REMARK SMILES IDX 43 13 6 14 8 15 44 16 4 17 2 18 3 20 5 21 1 22 13 24 14 25
REMARK SMILES IDX 15 26 16 28 17 29 21 30 18 31 20 32 19 33 26 34 27 35 28 36
REMARK SMILES IDX 29 38 30 39 31 40 32 41 39 42 33 43 38 44 34 45 37 47 35 48
REMARK SMILES IDX 36 49
REMARK H PARENT 44 19 5 23 15 27 28 37 33 46
REMARK Flexibility Score: inf
ROOT
ATOM      1  C   UNL     1      42.137  30.492   0.341  1.00  0.00     0.072 A 
ATOM      2  C   UNL     1      43.315  31.048   0.770  1.00  0.00     0.031 A 
ATOM      3  C   UNL     1      41.725  29.303   0.909  1.00  0.00     0.138 A 
ATOM      4  C   UNL     1      44.051  30.393   1.764  1.00  0.00     0.036 A 
ATOM      5  N   UNL     1      42.470  28.692   1.875  1.00  0.00    -0.249 NA
ATOM      6  C   UNL     1      43.627  29.207   2.321  1.00  0.00     0.128 A 
ENDROOT
BRANCH   1   7
ATOM      7  N   UNL     1      41.280  31.136  -0.629  1.00  0.00    -0.226 N 
BRANCH   7   8
ATOM      8  C   UNL     1      40.266  31.990  -0.268  1.00  0.00     0.277 C 
ATOM      9  O   UNL     1      39.106  31.746  -0.869  1.00  0.00    -0.267 OA
BRANCH   8  10
ATOM     10  C   UNL     1      40.219  33.097   0.624  1.00  0.00     0.099 A 
ATOM     11  S   UNL     1      39.853  34.783  -0.055  1.00  0.00    -0.112 S 
ATOM     12  C   UNL     1      40.289  33.385   1.943  1.00  0.00    -0.014 A 
ATOM     13  C   UNL     1      39.855  35.622   1.465  1.00  0.00     0.106 A 
ATOM     14  C   UNL     1      40.112  34.658   2.381  1.00  0.00     0.057 A 
ATOM     15  C   UNL     1      40.388  32.221   2.945  1.00  0.00     0.047 C 
ATOM     16  N   UNL     1      39.661  36.947   1.743  1.00  0.00    -0.335 N 
ATOM     17  C   UNL     1      40.171  35.152   3.708  1.00  0.00     0.157 A 
ATOM     18  C   UNL     1      39.722  37.371   3.009  1.00  0.00     0.106 A 
ATOM     19  H   UNL     1      39.473  37.558   0.944  1.00  0.00     0.169 HD
ATOM     20  N   UNL     1      39.973  36.460   3.929  1.00  0.00    -0.216 NA
ATOM     21  N   UNL     1      40.440  34.412   4.726  1.00  0.00    -0.282 NA
ATOM     22  C   UNL     1      39.508  38.821   3.319  1.00  0.00     0.087 C 
ATOM     23  H   UNL     1      40.474  34.800   5.685  1.00  0.00     0.189 HD
ENDBRANCH   8  10
ENDBRANCH   7   8
BRANCH   7  24
ATOM     24  C   UNL     1      41.599  30.774  -2.007  1.00  0.00     0.333 C 
ATOM     25  O   UNL     1      40.996  29.738  -2.448  1.00  0.00    -0.247 OA
ATOM     26  N   UNL     1      42.464  31.434  -2.843  1.00  0.00    -0.307 N 
ATOM     27  H   UNL     1      42.974  32.288  -2.535  1.00  0.00     0.171 HD
BRANCH  26  28
ATOM     28  C   UNL     1      42.732  31.037  -4.191  1.00  0.00     0.042 A 
ATOM     29  C   UNL     1      41.917  31.545  -5.198  1.00  0.00     0.026 A 
ATOM     30  C   UNL     1      43.719  30.176  -4.513  1.00  0.00     0.026 A 
ATOM     31  C   UNL     1      42.106  31.184  -6.502  1.00  0.00     0.002 A 
ATOM     32  C   UNL     1      43.899  29.818  -5.856  1.00  0.00     0.002 A 
ATOM     33  C   UNL     1      43.105  30.309  -6.859  1.00  0.00     0.000 A 
ENDBRANCH  26  28
ENDBRANCH   7  24
ENDBRANCH   1   7
BRANCH   6  34
ATOM     34  C   UNL     1      44.422  28.552   3.356  1.00  0.00     0.269 C 
ATOM     35  O   UNL     1      43.833  28.013   4.312  1.00  0.00    -0.268 OA
ATOM     36  N   UNL     1      45.836  28.502   3.317  1.00  0.00    -0.350 N 
ATOM     37  H   UNL     1      46.297  28.975   2.484  1.00  0.00     0.163 HD
BRANCH  36  38
ATOM     38  C   UNL     1      46.604  27.844   4.353  1.00  0.00     0.121 C 
BRANCH  38  39
ATOM     39  C   UNL     1      46.790  26.377   4.084  1.00  0.00     0.059 C 
BRANCH  39  40
ATOM     40  C   UNL     1      48.177  26.168   3.593  1.00  0.00    -0.021 A 
ATOM     41  C   UNL     1      49.177  27.100   3.406  1.00  0.00     0.087 A 
ATOM     42  C   UNL     1      48.722  24.952   3.227  1.00  0.00     0.003 A 
ATOM     43  N   UNL     1      50.275  26.464   2.944  1.00  0.00    -0.361 N 
ATOM     44  C   UNL     1      48.243  23.649   3.189  1.00  0.00     0.010 A 
ATOM     45  C   UNL     1      50.026  25.149   2.826  1.00  0.00     0.046 A 
ATOM     46  H   UNL     1      51.208  26.895   2.702  1.00  0.00     0.166 HD
ATOM     47  C   UNL     1      49.046  22.613   2.766  1.00  0.00     0.001 A 
ATOM     48  C   UNL     1      50.834  24.097   2.400  1.00  0.00     0.026 A 
ATOM     49  C   UNL     1      50.348  22.815   2.365  1.00  0.00     0.002 A 
ENDBRANCH  39  40
ENDBRANCH  38  39
ENDBRANCH  36  38
ENDBRANCH   6  34
TORSDOF 9
ENDMDL
MODEL 6
REMARK VINA RESULT:   -10.387      2.592      6.506
REMARK INTER + INTRA:         -17.424
REMARK INTER:                 -16.194
REMARK INTRA:                  -1.229
REMARK UNBOUND:                -1.571
REMARK SMILES Cc1nc(=N)c2c(C)c(C(=O)N(C(=O)Nc3ccccc3)c3ccc(C(=O)NCCc4c[nH]c5ccccc45)nc3)sc2[nH]1
REMARK SMILES IDX 22 1 23 2 41 3 24 4 40 5 25 6 12 7 10 8 11 9 9 10 42 11 7 12
REMARK SMILES IDX 43 13 6 14 8 15 44 16 4 17 2 18 3 20 5 21 1 22 13 24 14 25
REMARK SMILES IDX 15 26 16 28 17 29 21 30 18 31 20 32 19 33 26 34 27 35 28 36
REMARK SMILES IDX 29 38 30 39 31 40 32 41 39 42 33 43 38 44 34 45 37 47 35 48
REMARK SMILES IDX 36 49
REMARK H PARENT 44 19 5 23 15 27 28 37 33 46
REMARK Flexibility Score: inf
ROOT
ATOM      1  C   UNL     1      41.756  31.283   2.032  1.00  0.00     0.072 A 
ATOM      2  C   UNL     1      41.589  29.988   2.451  1.00  0.00     0.031 A 
ATOM      3  C   UNL     1      43.022  31.703   1.677  1.00  0.00     0.138 A 
ATOM      4  C   UNL     1      42.703  29.143   2.501  1.00  0.00     0.036 A 
ATOM      5  N   UNL     1      44.086  30.851   1.739  1.00  0.00    -0.249 NA
ATOM      6  C   UNL     1      43.961  29.576   2.143  1.00  0.00     0.128 A 
ENDROOT
BRANCH   1   7
ATOM      7  N   UNL     1      40.649  32.202   1.884  1.00  0.00    -0.226 N 
BRANCH   7   8
ATOM      8  C   UNL     1      39.767  32.132   0.833  1.00  0.00     0.277 C 
ATOM      9  O   UNL     1      38.510  31.890   1.190  1.00  0.00    -0.267 OA
BRANCH   8  10
ATOM     10  C   UNL     1      39.940  32.262  -0.573  1.00  0.00     0.099 A 
ATOM     11  S   UNL     1      39.270  33.766  -1.425  1.00  0.00    -0.112 S 
ATOM     12  C   UNL     1      40.538  31.647  -1.618  1.00  0.00    -0.014 A 
ATOM     13  C   UNL     1      39.851  33.378  -3.015  1.00  0.00     0.106 A 
ATOM     14  C   UNL     1      40.497  32.197  -2.858  1.00  0.00     0.057 A 
ATOM     15  C   UNL     1      41.417  30.415  -1.338  1.00  0.00     0.047 C 
ATOM     16  N   UNL     1      39.714  34.055  -4.195  1.00  0.00    -0.335 N 
ATOM     17  C   UNL     1      41.039  31.695  -4.067  1.00  0.00     0.157 A 
ATOM     18  C   UNL     1      40.244  33.546  -5.313  1.00  0.00     0.106 A 
ATOM     19  H   UNL     1      39.200  34.938  -4.158  1.00  0.00     0.169 HD
ATOM     20  N   UNL     1      40.879  32.396  -5.198  1.00  0.00    -0.216 NA
ATOM     21  N   UNL     1      41.659  30.569  -4.149  1.00  0.00    -0.282 NA
ATOM     22  C   UNL     1      40.099  34.285  -6.608  1.00  0.00     0.087 C 
ATOM     23  H   UNL     1      42.048  30.227  -5.045  1.00  0.00     0.189 HD
ENDBRANCH   8  10
ENDBRANCH   7   8
BRANCH   7  24
ATOM     24  C   UNL     1      40.584  33.200   2.948  1.00  0.00     0.333 C 
ATOM     25  O   UNL     1      40.914  32.777   4.106  1.00  0.00    -0.247 OA
ATOM     26  N   UNL     1      40.211  34.513   2.811  1.00  0.00    -0.307 N 
ATOM     27  H   UNL     1      39.940  34.909   1.887  1.00  0.00     0.171 HD
BRANCH  26  28
ATOM     28  C   UNL     1      40.174  35.450   3.892  1.00  0.00     0.042 A 
ATOM     29  C   UNL     1      40.651  36.737   3.659  1.00  0.00     0.026 A 
ATOM     30  C   UNL     1      39.722  35.126   5.121  1.00  0.00     0.026 A 
ATOM     31  C   UNL     1      40.665  37.670   4.658  1.00  0.00     0.002 A 
ATOM     32  C   UNL     1      39.744  36.095   6.132  1.00  0.00     0.002 A 
ATOM     33  C   UNL     1      40.210  37.366   5.919  1.00  0.00     0.000 A 
ENDBRANCH  26  28
ENDBRANCH   7  24
ENDBRANCH   1   7
BRANCH   6  34
ATOM     34  C   UNL     1      45.101  28.666   2.208  1.00  0.00     0.269 C 
ATOM     35  O   UNL     1      46.233  29.103   1.928  1.00  0.00    -0.268 OA
ATOM     36  N   UNL     1      44.973  27.305   2.578  1.00  0.00    -0.350 N 
ATOM     37  H   UNL     1      43.990  26.975   2.808  1.00  0.00     0.163 HD
BRANCH  36  38
ATOM     38  C   UNL     1      46.118  26.422   2.639  1.00  0.00     0.121 C 
BRANCH  38  39
ATOM     39  C   UNL     1      46.662  26.284   4.033  1.00  0.00     0.059 C 
BRANCH  39  40
ATOM     40  C   UNL     1      48.027  26.874   4.060  1.00  0.00    -0.021 A 
ATOM     41  C   UNL     1      48.421  28.117   4.506  1.00  0.00     0.087 A 
ATOM     42  C   UNL     1      49.177  26.247   3.623  1.00  0.00     0.003 A 
ATOM     43  N   UNL     1      49.757  28.229   4.341  1.00  0.00    -0.361 N 
ATOM     44  C   UNL     1      49.454  25.002   3.074  1.00  0.00     0.010 A 
ATOM     45  C   UNL     1      50.246  27.099   3.803  1.00  0.00     0.046 A 
ATOM     46  H   UNL     1      50.363  29.057   4.584  1.00  0.00     0.166 HD
ATOM     47  C   UNL     1      50.740  24.650   2.729  1.00  0.00     0.001 A 
ATOM     48  C   UNL     1      51.546  26.738   3.453  1.00  0.00     0.026 A 
ATOM     49  C   UNL     1      51.804  25.505   2.910  1.00  0.00     0.002 A 
ENDBRANCH  39  40
ENDBRANCH  38  39
ENDBRANCH  36  38
ENDBRANCH   6  34
TORSDOF 9
ENDMDL
MODEL 7
REMARK VINA RESULT:   -10.320      2.156      6.464
REMARK INTER + INTRA:         -17.321
REMARK INTER:                 -16.762
REMARK INTRA:                  -0.558
REMARK UNBOUND:                -1.571
REMARK SMILES Cc1nc(=N)c2c(C)c(C(=O)N(C(=O)Nc3ccccc3)c3ccc(C(=O)NCCc4c[nH]c5ccccc45)nc3)sc2[nH]1
REMARK SMILES IDX 22 1 23 2 41 3 24 4 40 5 25 6 12 7 10 8 11 9 9 10 42 11 7 12
REMARK SMILES IDX 43 13 6 14 8 15 44 16 4 17 2 18 3 20 5 21 1 22 13 24 14 25
REMARK SMILES IDX 15 26 16 28 17 29 21 30 18 31 20 32 19 33 26 34 27 35 28 36
REMARK SMILES IDX 29 38 30 39 31 40 32 41 39 42 33 43 38 44 34 45 37 47 35 48
REMARK SMILES IDX 36 49
REMARK H PARENT 44 19 5 23 15 27 28 37 33 46
REMARK Flexibility Score: inf
ROOT
ATOM      1  C   UNL     1      42.596  30.470   1.402  1.00  0.00     0.072 A 
ATOM      2  C   UNL     1      42.101  29.373   2.060  1.00  0.00     0.031 A 
ATOM      3  C   UNL     1      43.937  30.768   1.535  1.00  0.00     0.138 A 
ATOM      4  C   UNL     1      42.972  28.598   2.835  1.00  0.00     0.036 A 
ATOM      5  N   UNL     1      44.756  29.990   2.300  1.00  0.00    -0.249 NA
ATOM      6  C   UNL     1      44.308  28.908   2.957  1.00  0.00     0.128 A 
ENDROOT
BRANCH   1   7
ATOM      7  N   UNL     1      41.783  31.284   0.526  1.00  0.00    -0.226 N 
BRANCH   7   8
ATOM      8  C   UNL     1      41.446  30.890  -0.746  1.00  0.00     0.277 C 
ATOM      9  O   UNL     1      40.190  31.158  -1.088  1.00  0.00    -0.267 OA
BRANCH   8  10
ATOM     10  C   UNL     1      42.184  30.238  -1.773  1.00  0.00     0.099 A 
ATOM     11  S   UNL     1      42.709  28.477  -1.522  1.00  0.00    -0.112 S 
ATOM     12  C   UNL     1      42.634  30.440  -3.031  1.00  0.00    -0.014 A 
ATOM     13  C   UNL     1      43.447  28.258  -3.079  1.00  0.00     0.106 A 
ATOM     14  C   UNL     1      43.279  29.450  -3.701  1.00  0.00     0.057 A 
ATOM     15  C   UNL     1      42.241  31.742  -3.751  1.00  0.00     0.047 C 
ATOM     16  N   UNL     1      44.079  27.169  -3.612  1.00  0.00    -0.335 N 
ATOM     17  C   UNL     1      43.837  29.481  -5.003  1.00  0.00     0.157 A 
ATOM     18  C   UNL     1      44.589  27.240  -4.846  1.00  0.00     0.106 A 
ATOM     19  H   UNL     1      44.128  26.336  -3.021  1.00  0.00     0.169 HD
ATOM     20  N   UNL     1      44.446  28.387  -5.481  1.00  0.00    -0.216 NA
ATOM     21  N   UNL     1      43.821  30.527  -5.753  1.00  0.00    -0.282 NA
ATOM     22  C   UNL     1      45.281  26.049  -5.434  1.00  0.00     0.087 C 
ATOM     23  H   UNL     1      44.234  30.522  -6.702  1.00  0.00     0.189 HD
ENDBRANCH   8  10
ENDBRANCH   7   8
BRANCH   7  24
ATOM     24  C   UNL     1      41.379  32.552   1.128  1.00  0.00     0.333 C 
ATOM     25  O   UNL     1      42.035  33.573   0.730  1.00  0.00    -0.247 OA
ATOM     26  N   UNL     1      40.384  32.732   2.055  1.00  0.00    -0.307 N 
ATOM     27  H   UNL     1      39.815  31.934   2.406  1.00  0.00     0.171 HD
BRANCH  26  28
ATOM     28  C   UNL     1      40.026  34.004   2.606  1.00  0.00     0.042 A 
ATOM     29  C   UNL     1      39.209  34.838   1.849  1.00  0.00     0.026 A 
ATOM     30  C   UNL     1      40.469  34.426   3.808  1.00  0.00     0.026 A 
ATOM     31  C   UNL     1      38.853  36.075   2.309  1.00  0.00     0.002 A 
ATOM     32  C   UNL     1      40.093  35.697   4.263  1.00  0.00     0.002 A 
ATOM     33  C   UNL     1      39.290  36.531   3.530  1.00  0.00     0.000 A 
ENDBRANCH  26  28
ENDBRANCH   7  24
ENDBRANCH   1   7
BRANCH   6  34
ATOM     34  C   UNL     1      45.187  28.077   3.775  1.00  0.00     0.269 C 
ATOM     35  O   UNL     1      44.683  27.371   4.668  1.00  0.00    -0.268 OA
ATOM     36  N   UNL     1      46.590  28.039   3.594  1.00  0.00    -0.350 N 
ATOM     37  H   UNL     1      46.978  28.657   2.821  1.00  0.00     0.163 HD
BRANCH  36  38
ATOM     38  C   UNL     1      47.442  27.205   4.415  1.00  0.00     0.121 C 
BRANCH  38  39
ATOM     39  C   UNL     1      48.887  27.612   4.339  1.00  0.00     0.059 C 
BRANCH  39  40
ATOM     40  C   UNL     1      49.628  26.557   3.598  1.00  0.00    -0.021 A 
ATOM     41  C   UNL     1      50.899  26.609   3.063  1.00  0.00     0.087 A 
ATOM     42  C   UNL     1      49.148  25.295   3.308  1.00  0.00     0.003 A 
ATOM     43  N   UNL     1      51.166  25.423   2.476  1.00  0.00    -0.361 N 
ATOM     44  C   UNL     1      47.958  24.628   3.568  1.00  0.00     0.010 A 
ATOM     45  C   UNL     1      50.113  24.599   2.611  1.00  0.00     0.046 A 
ATOM     46  H   UNL     1      52.052  25.143   1.977  1.00  0.00     0.166 HD
ATOM     47  C   UNL     1      47.765  23.333   3.141  1.00  0.00     0.001 A 
ATOM     48  C   UNL     1      49.913  23.289   2.182  1.00  0.00     0.026 A 
ATOM     49  C   UNL     1      48.731  22.643   2.444  1.00  0.00     0.002 A 
ENDBRANCH  39  40
ENDBRANCH  38  39
ENDBRANCH  36  38
ENDBRANCH   6  34
TORSDOF 9
ENDMDL
MODEL 8
REMARK VINA RESULT:   -10.316      1.785      2.557
REMARK INTER + INTRA:         -17.315
REMARK INTER:                 -16.294
REMARK INTRA:                  -1.020
REMARK UNBOUND:                -1.571
REMARK SMILES Cc1nc(=N)c2c(C)c(C(=O)N(C(=O)Nc3ccccc3)c3ccc(C(=O)NCCc4c[nH]c5ccccc45)nc3)sc2[nH]1
REMARK SMILES IDX 22 1 23 2 41 3 24 4 40 5 25 6 12 7 10 8 11 9 9 10 42 11 7 12
REMARK SMILES IDX 43 13 6 14 8 15 44 16 4 17 2 18 3 20 5 21 1 22 13 24 14 25
REMARK SMILES IDX 15 26 16 28 17 29 21 30 18 31 20 32 19 33 26 34 27 35 28 36
REMARK SMILES IDX 29 38 30 39 31 40 32 41 39 42 33 43 38 44 34 45 37 47 35 48
REMARK SMILES IDX 36 49
REMARK H PARENT 44 19 5 23 15 27 28 37 33 46
REMARK Flexibility Score: inf
ROOT
ATOM      1  C   UNL     1      42.262  30.289   0.765  1.00  0.00     0.072 A 
ATOM      2  C   UNL     1      41.702  29.197   1.377  1.00  0.00     0.031 A 
ATOM      3  C   UNL     1      43.548  30.652   1.112  1.00  0.00     0.138 A 
ATOM      4  C   UNL     1      42.453  28.493   2.326  1.00  0.00     0.036 A 
ATOM      5  N   UNL     1      44.250  29.942   2.043  1.00  0.00    -0.249 NA
ATOM      6  C   UNL     1      43.735  28.867   2.662  1.00  0.00     0.128 A 
ENDROOT
BRANCH   1   7
ATOM      7  N   UNL     1      41.585  31.031  -0.276  1.00  0.00    -0.226 N 
BRANCH   7   8
ATOM      8  C   UNL     1      40.557  31.903  -0.011  1.00  0.00     0.277 C 
ATOM      9  O   UNL     1      39.431  31.635  -0.663  1.00  0.00    -0.267 OA
BRANCH   8  10
ATOM     10  C   UNL     1      40.467  33.051   0.825  1.00  0.00     0.099 A 
ATOM     11  S   UNL     1      40.331  34.725   0.040  1.00  0.00    -0.112 S 
ATOM     12  C   UNL     1      40.369  33.395   2.128  1.00  0.00    -0.014 A 
ATOM     13  C   UNL     1      40.178  35.632   1.513  1.00  0.00     0.106 A 
ATOM     14  C   UNL     1      40.228  34.695   2.490  1.00  0.00     0.057 A 
ATOM     15  C   UNL     1      40.236  32.274   3.175  1.00  0.00     0.047 C 
ATOM     16  N   UNL     1      40.047  36.978   1.712  1.00  0.00    -0.335 N 
ATOM     17  C   UNL     1      40.133  35.245   3.793  1.00  0.00     0.157 A 
ATOM     18  C   UNL     1      39.958  37.456   2.958  1.00  0.00     0.106 A 
ATOM     19  H   UNL     1      40.023  37.563   0.873  1.00  0.00     0.169 HD
ATOM     20  N   UNL     1      40.006  36.572   3.936  1.00  0.00    -0.216 NA
ATOM     21  N   UNL     1      40.197  34.536   4.865  1.00  0.00    -0.282 NA
ATOM     22  C   UNL     1      39.813  38.930   3.181  1.00  0.00     0.087 C 
ATOM     23  H   UNL     1      40.123  34.964   5.805  1.00  0.00     0.189 HD
ENDBRANCH   8  10
ENDBRANCH   7   8
BRANCH   7  24
ATOM     24  C   UNL     1      42.098  30.745  -1.613  1.00  0.00     0.333 C 
ATOM     25  O   UNL     1      41.626  29.691  -2.158  1.00  0.00    -0.247 OA
ATOM     26  N   UNL     1      43.013  31.491  -2.311  1.00  0.00    -0.307 N 
ATOM     27  H   UNL     1      43.421  32.363  -1.914  1.00  0.00     0.171 HD
BRANCH  26  28
ATOM     28  C   UNL     1      43.474  31.165  -3.626  1.00  0.00     0.042 A 
ATOM     29  C   UNL     1      44.644  30.420  -3.743  1.00  0.00     0.026 A 
ATOM     30  C   UNL     1      42.835  31.571  -4.742  1.00  0.00     0.026 A 
ATOM     31  C   UNL     1      45.149  30.098  -4.971  1.00  0.00     0.002 A 
ATOM     32  C   UNL     1      43.368  31.230  -5.992  1.00  0.00     0.002 A 
ATOM     33  C   UNL     1      44.519  30.498  -6.125  1.00  0.00     0.000 A 
ENDBRANCH  26  28
ENDBRANCH   7  24
ENDBRANCH   1   7
BRANCH   6  34
ATOM     34  C   UNL     1      44.488  28.109   3.656  1.00  0.00     0.269 C 
ATOM     35  O   UNL     1      43.907  27.737   4.693  1.00  0.00    -0.268 OA
ATOM     36  N   UNL     1      45.854  27.775   3.490  1.00  0.00    -0.350 N 
ATOM     37  H   UNL     1      46.311  28.112   2.592  1.00  0.00     0.163 HD
BRANCH  36  38
ATOM     38  C   UNL     1      46.581  27.020   4.488  1.00  0.00     0.121 C 
BRANCH  38  39
ATOM     39  C   UNL     1      47.962  27.562   4.724  1.00  0.00     0.059 C 
BRANCH  39  40
ATOM     40  C   UNL     1      48.924  26.740   3.944  1.00  0.00    -0.021 A 
ATOM     41  C   UNL     1      50.164  27.093   3.456  1.00  0.00     0.087 A 
ATOM     42  C   UNL     1      48.727  25.427   3.561  1.00  0.00     0.003 A 
ATOM     43  N   UNL     1      50.688  26.032   2.805  1.00  0.00    -0.361 N 
ATOM     44  C   UNL     1      47.700  24.510   3.739  1.00  0.00     0.010 A 
ATOM     45  C   UNL     1      49.830  24.998   2.853  1.00  0.00     0.046 A 
ATOM     46  H   UNL     1      51.623  25.978   2.319  1.00  0.00     0.166 HD
ATOM     47  C   UNL     1      47.794  23.235   3.226  1.00  0.00     0.001 A 
ATOM     48  C   UNL     1      49.920  23.707   2.337  1.00  0.00     0.026 A 
ATOM     49  C   UNL     1      48.897  22.811   2.520  1.00  0.00     0.002 A 
ENDBRANCH  39  40
ENDBRANCH  38  39
ENDBRANCH  36  38
ENDBRANCH   6  34
TORSDOF 9
ENDMDL
MODEL 9
REMARK VINA RESULT:   -10.106      2.101      3.438
REMARK INTER + INTRA:         -16.995
REMARK INTER:                 -15.349
REMARK INTRA:                  -1.645
REMARK UNBOUND:                -1.571
REMARK SMILES Cc1nc(=N)c2c(C)c(C(=O)N(C(=O)Nc3ccccc3)c3ccc(C(=O)NCCc4c[nH]c5ccccc45)nc3)sc2[nH]1
REMARK SMILES IDX 22 1 23 2 41 3 24 4 40 5 25 6 12 7 10 8 11 9 9 10 42 11 7 12
REMARK SMILES IDX 43 13 6 14 8 15 44 16 4 17 2 18 3 20 5 21 1 22 13 24 14 25
REMARK SMILES IDX 15 26 16 28 17 29 21 30 18 31 20 32 19 33 26 34 27 35 28 36
REMARK SMILES IDX 29 38 30 39 31 40 32 41 39 42 33 43 38 44 34 45 37 47 35 48
REMARK SMILES IDX 36 49
REMARK H PARENT 44 19 5 23 15 27 28 37 33 46
REMARK Flexibility Score: inf
ROOT
ATOM      1  C   UNL     1      41.887  30.507   0.099  1.00  0.00     0.072 A 
ATOM      2  C   UNL     1      43.128  30.861   0.567  1.00  0.00     0.031 A 
ATOM      3  C   UNL     1      41.284  29.379   0.619  1.00  0.00     0.138 A 
ATOM      4  C   UNL     1      43.732  30.068   1.550  1.00  0.00     0.036 A 
ATOM      5  N   UNL     1      41.904  28.630   1.576  1.00  0.00    -0.249 NA
ATOM      6  C   UNL     1      43.117  28.945   2.059  1.00  0.00     0.128 A 
ENDROOT
BRANCH   1   7
ATOM      7  N   UNL     1      41.162  31.307  -0.863  1.00  0.00    -0.226 N 
BRANCH   7   8
ATOM      8  C   UNL     1      40.266  32.279  -0.490  1.00  0.00     0.277 C 
ATOM      9  O   UNL     1      39.155  32.308  -1.219  1.00  0.00    -0.267 OA
BRANCH   8  10
ATOM     10  C   UNL     1      40.301  33.274   0.527  1.00  0.00     0.099 A 
ATOM     11  S   UNL     1      40.210  35.060   0.039  1.00  0.00    -0.112 S 
ATOM     12  C   UNL     1      40.313  33.398   1.873  1.00  0.00    -0.014 A 
ATOM     13  C   UNL     1      40.212  35.714   1.648  1.00  0.00     0.106 A 
ATOM     14  C   UNL     1      40.274  34.625   2.452  1.00  0.00     0.057 A 
ATOM     15  C   UNL     1      40.186  32.125   2.729  1.00  0.00     0.047 C 
ATOM     16  N   UNL     1      40.174  37.012   2.074  1.00  0.00    -0.335 N 
ATOM     17  C   UNL     1      40.301  34.953   3.831  1.00  0.00     0.157 A 
ATOM     18  C   UNL     1      40.199  37.277   3.384  1.00  0.00     0.106 A 
ATOM     19  H   UNL     1      40.127  37.730   1.347  1.00  0.00     0.169 HD
ATOM     20  N   UNL     1      40.262  36.242   4.199  1.00  0.00    -0.216 NA
ATOM     21  N   UNL     1      40.397  34.072   4.764  1.00  0.00    -0.282 NA
ATOM     22  C   UNL     1      40.157  38.698   3.856  1.00  0.00     0.087 C 
ATOM     23  H   UNL     1      40.413  34.339   5.764  1.00  0.00     0.189 HD
ENDBRANCH   8  10
ENDBRANCH   7   8
BRANCH   7  24
ATOM     24  C   UNL     1      41.474  30.962  -2.247  1.00  0.00     0.333 C 
ATOM     25  O   UNL     1      40.856  29.942  -2.703  1.00  0.00    -0.247 OA
ATOM     26  N   UNL     1      42.346  31.624  -3.075  1.00  0.00    -0.307 N 
ATOM     27  H   UNL     1      42.868  32.466  -2.754  1.00  0.00     0.171 HD
BRANCH  26  28
ATOM     28  C   UNL     1      42.606  31.244  -4.430  1.00  0.00     0.042 A 
ATOM     29  C   UNL     1      43.695  30.414  -4.679  1.00  0.00     0.026 A 
ATOM     30  C   UNL     1      41.856  31.678  -5.463  1.00  0.00     0.026 A 
ATOM     31  C   UNL     1      44.011  30.037  -5.953  1.00  0.00     0.002 A 
ATOM     32  C   UNL     1      42.194  31.280  -6.764  1.00  0.00     0.002 A 
ATOM     33  C   UNL     1      43.264  30.463  -7.026  1.00  0.00     0.000 A 
ENDBRANCH  26  28
ENDBRANCH   7  24
ENDBRANCH   1   7
BRANCH   6  34
ATOM     34  C   UNL     1      43.778  28.143   3.084  1.00  0.00     0.269 C 
ATOM     35  O   UNL     1      43.087  27.380   3.785  1.00  0.00    -0.268 OA
ATOM     36  N   UNL     1      45.174  28.195   3.314  1.00  0.00    -0.350 N 
ATOM     37  H   UNL     1      45.724  28.860   2.694  1.00  0.00     0.163 HD
BRANCH  36  38
ATOM     38  C   UNL     1      45.808  27.387   4.334  1.00  0.00     0.121 C 
BRANCH  38  39
ATOM     39  C   UNL     1      47.234  27.793   4.581  1.00  0.00     0.059 C 
BRANCH  39  40
ATOM     40  C   UNL     1      48.120  26.735   4.026  1.00  0.00    -0.021 A 
ATOM     41  C   UNL     1      47.802  25.440   3.674  1.00  0.00     0.087 A 
ATOM     42  C   UNL     1      49.467  26.880   3.758  1.00  0.00     0.003 A 
ATOM     43  N   UNL     1      48.918  24.834   3.214  1.00  0.00    -0.361 N 
ATOM     44  C   UNL     1      50.374  27.923   3.886  1.00  0.00     0.010 A 
ATOM     45  C   UNL     1      49.952  25.692   3.254  1.00  0.00     0.046 A 
ATOM     46  H   UNL     1      49.009  23.842   2.867  1.00  0.00     0.166 HD
ATOM     47  C   UNL     1      51.693  27.763   3.524  1.00  0.00     0.001 A 
ATOM     48  C   UNL     1      51.287  25.535   2.888  1.00  0.00     0.026 A 
ATOM     49  C   UNL     1      52.173  26.574   3.021  1.00  0.00     0.002 A 
ENDBRANCH  39  40
ENDBRANCH  38  39
ENDBRANCH  36  38
ENDBRANCH   6  34
TORSDOF 9
ENDMDL
