REMARK SMILES O=C(NCC1CCCCc2ccccc21)c1cc2c(F)c(Cl)ccc2[nH]1
REMARK SMILES IDX 2 1 1 2 3 3 16 5 17 6 26 7 18 8 25 9 19 11 24 12 20 13 21 14
REMARK SMILES IDX 23 15 22 16 4 17 5 18 6 19 15 20 7 21 14 22 10 23 8 24 13 25
REMARK SMILES IDX 9 26 11 27 12 28
REMARK H PARENT 3 4 26 10
REMARK Flexibility Score: inf
ROOT
ATOM      1  C   UNL     1       1.415   1.128   0.077  1.00  0.00     0.267 C 
ATOM      2  O   UNL     1       1.408   1.725  -1.023  1.00  0.00    -0.268 OA
ATOM      3  N   UNL     1       0.243   1.208   0.888  1.00  0.00    -0.350 N 
ATOM      4  H   UNL     1       0.321   0.677   1.807  1.00  0.00     0.163 HD
ENDROOT
BRANCH   1   5
ATOM      5  C   UNL     1       2.595   0.390   0.474  1.00  0.00     0.105 A 
ATOM      6  C   UNL     1       3.745   0.286  -0.277  1.00  0.00     0.045 A 
ATOM      7  N   UNL     1       2.816  -0.318   1.602  1.00  0.00    -0.350 N 
ATOM      8  C   UNL     1       4.645  -0.488   0.417  1.00  0.00     0.038 A 
ATOM      9  C   UNL     1       4.036  -0.864   1.612  1.00  0.00     0.049 A 
ATOM     10  H   UNL     1       2.120  -0.416   2.353  1.00  0.00     0.167 HD
ATOM     11  C   UNL     1       5.926  -0.884   0.098  1.00  0.00     0.151 A 
ATOM     12  C   UNL     1       4.775  -1.651   2.460  1.00  0.00     0.028 A 
ATOM     13  F   UNL     1       6.480  -0.492  -1.079  1.00  0.00    -0.205 F 
ATOM     14  C   UNL     1       6.646  -1.677   0.975  1.00  0.00     0.077 A 
ATOM     15  C   UNL     1       6.069  -2.062   2.160  1.00  0.00     0.026 A 
ATOM     16  Cl  UNL     1       8.259  -2.136   0.502  1.00  0.00    -0.081 Cl
ENDBRANCH   1   5
BRANCH   3  17
ATOM     17  C   UNL     1      -0.939   1.935   0.513  1.00  0.00     0.124 C 
BRANCH  17  18
ATOM     18  C   UNL     1      -1.577   1.442  -0.773  1.00  0.00     0.039 C 
ATOM     19  C   UNL     1      -2.794   2.301  -1.030  1.00  0.00     0.010 C 
ATOM     20  C   UNL     1      -2.016   0.036  -0.658  1.00  0.00    -0.040 A 
ATOM     21  C   UNL     1      -3.964   1.493  -1.560  1.00  0.00     0.001 C 
ATOM     22  C   UNL     1      -1.115  -0.829  -1.232  1.00  0.00     0.004 A 
ATOM     23  C   UNL     1      -3.139  -0.506  -0.086  1.00  0.00    -0.044 A 
ATOM     24  C   UNL     1      -4.876   1.240  -0.354  1.00  0.00     0.005 C 
ATOM     25  C   UNL     1      -1.337  -2.211  -1.232  1.00  0.00     0.000 A 
ATOM     26  C   UNL     1      -4.240   0.229   0.580  1.00  0.00     0.036 C 
ATOM     27  C   UNL     1      -3.365  -1.856  -0.081  1.00  0.00     0.004 A 
ATOM     28  C   UNL     1      -2.474  -2.723  -0.650  1.00  0.00     0.000 A 
ENDBRANCH  17  18
ENDBRANCH   3  17
TORSDOF 3
